# created with PyMOL 2.5.5
@<TRIPOS>MOLECULE
GGPP
62 61 1                 
SMALL
USER_CHARGES
@<TRIPOS>ATOM
1	 P01	45.941	50.576	50.934	p5	783	GGP	0.000	
2	 P02	43.539	52.117	51.047	p5	783	GGP	0.000	
3	 C01	46.058	42.522	47.955	c2	783	GGP	0.000	
4	 O01	46.276	49.122	50.346	os	783	GGP	0.000	
5	 C02	45.222	48.192	50.280	c3	783	GGP	0.000	
6	 O02	44.361	50.790	50.665	os	783	GGP	0.000	
7	 C03	44.857	48.005	48.842	c2	783	GGP	0.000	
8	 O03	42.127	51.922	50.620	o	783	GGP	-1.000	
9	 C04	43.577	48.062	48.448	c2	783	GGP	0.000	
10	 O04	46.265	50.643	52.361	o	783	GGP	-1.000	
11	 C05	43.256	47.868	46.999	c3	783	GGP	0.000	
12	 O05	46.802	51.529	50.221	o	783	GGP	0.000	
13	 C06	41.750	47.929	46.751	c3	783	GGP	0.000	
14	 O06	43.526	52.326	52.498	o	783	GGP	-1.000	
15	 C07	41.104	46.570	46.749	c2	783	GGP	0.000	
16	 O07	44.164	53.275	50.369	o	783	GGP	0.000	
17	 C08	41.504	45.576	45.940	c2	783	GGP	0.000	
18	 C09	40.817	44.252	45.968	c3	783	GGP	0.000	
19	 C10	41.846	43.136	45.865	c3	783	GGP	0.000	
20	 C11	42.442	42.929	47.219	c2	783	GGP	0.000	
21	 C12	43.295	41.932	47.467	c2	783	GGP	0.000	
22	 C13	43.876	41.758	48.833	c3	783	GGP	0.000	
23	 C14	45.375	41.464	48.755	c3	783	GGP	0.000	
24	 C15	46.357	43.708	48.482	c2	783	GGP	0.000	
25	 C16	46.015	43.991	49.925	c3	783	GGP	0.000	
26	 C17	47.026	44.749	47.636	c3	783	GGP	0.000	
27	 C18	43.694	41.006	46.352	c3	783	GGP	0.000	
28	 C19	42.632	45.772	44.990	c3	783	GGP	0.000	
29	 C20	42.474	48.330	49.429	c3	783	GGP	0.000	
30	 H01	46.318	42.320	46.916	ha	783	GGP	0.000	
31	 H04	45.640	47.820	48.106	ha	783	GGP	0.000	
32	 H09	40.276	46.385	47.433	ha	783	GGP	0.000	
33	 H14	42.173	43.610	48.026	ha	783	GGP	0.000	
34	 H02	44.362	48.555	50.843	h1	783	GGP	0.000	
35	 H03	45.540	47.241	50.708	h1	783	GGP	0.000	
36	 H05	43.744	48.651	46.419	hc	783	GGP	0.000	
37	 H06	43.615	46.884	46.696	hc	783	GGP	0.000	
38	 H07	41.598	48.366	45.764	hc	783	GGP	0.000	
39	 H08	41.291	48.532	47.535	hc	783	GGP	0.000	
40	 H10	40.129	44.186	45.125	hc	783	GGP	0.000	
41	 H11	40.264	44.150	46.902	hc	783	GGP	0.000	
42	 H12	42.622	43.403	45.147	hc	783	GGP	0.000	
43	 H13	41.364	42.218	45.528	hc	783	GGP	0.000	
44	 H15	43.381	40.916	49.317	hc	783	GGP	0.000	
45	 H16	43.720	42.671	49.407	hc	783	GGP	0.000	
46	 H17	45.527	40.497	48.275	hc	783	GGP     0.000	
47	 H18	45.793	41.444	49.761	hc	783	GGP	0.000	
48	 H19	44.977	43.716	50.112	hc	783	GGP	0.000	
49	 H20	46.668	43.408	50.575	hc	783	GGP	0.000	
50	 H21	46.152	45.053	50.130	hc	783	GGP	0.000	
51	 H22	48.020	44.402	47.353	hc	783	GGP	0.000	
52	 H23	46.433	44.924	46.738	hc	783	GGP	0.000	
53	 H24	47.113	45.677	48.201	hc	783	GGP	0.000	
54	 H25	44.711	40.652	46.521	hc	783	GGP	0.000	
55	 H26	43.014	40.155	46.325	hc	783	GGP	0.000	
56	 H27	43.648	41.539	45.402	hc	783	GGP	0.000	
57	 H28	43.518	45.263	45.369	hc	783	GGP	0.000	
58	 H29	42.365	45.359	44.017	hc	783	GGP	0.000	
59	 H30	42.841	46.837	44.888	hc	783	GGP	0.000	
60	 H31	41.572	47.805	49.114	hc	783	GGP	0.000	
61	 H32	42.772	47.978	50.417	hc	783	GGP	0.000	
62	 H33	42.275	49.401	49.469	hc	783	GGP	0.000	
@<TRIPOS>BOND
1 1 4 1
2 1 6 1
3 1 10 1
4 1 12 2
5 2 6 1
6 2 8 1
7 2 14 1
8 2 16 2
9 3 24 2
10 3 30 1
11 4 5 1
12 5 7 1
13 5 34 1
14 5 35 1
15 7 9 2
16 7 31 1
17 9 11 1
18 9 29 1
19 11 13 1
20 11 36 1
21 11 37 1
22 13 15 1
23 13 38 1
24 13 39 1
25 15 17 2
26 15 32 1
27 17 18 1
28 17 28 1
29 18 19 1
30 18 40 1
31 18 41 1
32 19 20 1
33 19 42 1
34 19 43 1
35 20 21 2
36 20 33 1
37 21 22 1
38 21 27 1
39 22 23 1
40 22 44 1
41 22 45 1
42 3 23 1
43 23 46 1
44 23 47 1
45 24 25 1
46 24 26 1
47 25 48 1
48 25 49 1
49 25 50 1
50 26 51 1
51 26 52 1
52 26 53 1
53 27 54 1
54 27 55 1
55 27 56 1
56 28 57 1
57 28 58 1
58 28 59 1
59 29 60 1
60 29 61 1
61 29 62 1
@<TRIPOS>SUBSTRUCTURE
1	GGP	1	GROUP	1 ****	GGP
